Circuit: * C:\Users\nick\Downloads\ELEC3400\ltspice\test\Draft1.asc

WARNING: Node VO is floating.

WARNING: Less than two connections to node VO.  This node is used by C1.
Direct Newton iteration for .op point succeeded.

Date: Mon May 17 15:28:20 2021
Total elapsed time: 0.210 seconds.

tnom = 27
temp = 27
method = modified trap
totiter = 2046
traniter = 2040
tranpoints = 1021
accept = 1021
rejected = 0
matrix size = 17
fillins = 4
solver = Normal
Matrix Compiler1: 1.46 KB object code size  0.5/0.3/[0.2]
Matrix Compiler2: 1.52 KB object code size  0.2/0.3/[0.2]

