Circuit: * C:\Users\nick\Downloads\ELEC3400\ltspice\group_project\v5\v5.asc

Warning: Multiple definitions of model "aons66402" Type: Vdmos1
WARNING: Less than two connections to node NC_01.  This node is used by R15.
Direct Newton iteration failed to find .op point.  (Use ".option noopiter" to skip.)
Starting Gmin stepping
Gmin = 10
Gmin = 1.07374
Gmin = 0.115292
Gmin = 0.0123794
Gmin = 0.00132923
Gmin = 0.000142725
Gmin = 1.5325e-005
Gmin = 1.6455e-006
Gmin = 1.76685e-007
Gmin = 1.89714e-008
Gmin = 2.03704e-009
Gmin = 2.18725e-010
Gmin = 2.34854e-011
Gmin = 2.52173e-012
Gmin = 2.70769e-013
Gmin = 0
Gmin stepping succeeded in finding the operating point.


Date: Mon May 17 10:28:18 2021
Total elapsed time: 9.792 seconds.

tnom = 27
temp = 27
method = modified trap
totiter = 1200518
traniter = 1200038
tranpoints = 400016
accept = 240018
rejected = 159998
matrix size = 56
fillins = 47
solver = Normal
Matrix Compiler1: 6.15 KB object code size  1.0/0.5/[0.3]
Matrix Compiler2: 5.89 KB object code size  0.7/0.6/[0.3]

