Circuit: * C:\Users\nick\Downloads\ELEC3400\ltspice\group_project\v5\v5.asc

Warning: Multiple definitions of model "aons66402" Type: Vdmos1
WARNING: Node NC_01 is floating.
WARNING: Node VOUT is floating.

WARNING: Less than two connections to node NC_01.  This node is used by C2.
WARNING: Less than two connections to node VOUT.  This node is used by C4.
WARNING: Less than two connections to node NC_02.  This node is used by R15.
WARNING: Less than two connections to node NC_03.  This node is used by R16.
Direct Newton iteration failed to find .op point.  (Use ".option noopiter" to skip.)
Starting Gmin stepping
Gmin = 10
Gmin = 1.07374
Gmin = 0.115292
Gmin = 0.0123794
Gmin = 0.00132923
Gmin = 0.000142725
Gmin = 1.5325e-005
Gmin = 1.6455e-006
Gmin = 1.76685e-007
Gmin = 1.89714e-008
Gmin = 2.03704e-009
Gmin = 2.18725e-010
Gmin = 2.34854e-011
Gmin = 2.52173e-012
Gmin = 2.70769e-013
Gmin = 0
Gmin stepping succeeded in finding the operating point.


Date: Mon May 17 16:05:39 2021
Total elapsed time: 0.566 seconds.

tnom = 27
temp = 27
method = modified trap
totiter = 12516
traniter = 12036
tranpoints = 4016
accept = 2418
rejected = 1598
matrix size = 58
fillins = 27
solver = Normal
Matrix Compiler1: 5.30 KB object code size  1.5/1.2/[0.5]
Matrix Compiler2: 5.60 KB object code size  1.7/1.9/[0.8]

