Circuit: * C:\Users\PC\Dropbox\ELEC3400 LTSpice\ELEC3400 Prac1.asc

Early termination of direct N-R iteration.
Direct Newton iteration failed to find .op point.  (Use ".option noopiter" to skip.)
Starting Gmin stepping
Gmin = 10
vernier = 0.5
vernier = 0.25
vernier = 0.125
Gmin = 5.5165
vernier = 0.0625
vernier = 0.03125
vernier = 0.015625
vernier = 0.0078125
Gmin = 5.49501
vernier = 0.00390625
vernier = 0.00195313
vernier = 0.000976563
vernier = 0.000488281
Gmin = 5.50104
Gmin = 0
Gmin stepping succeeded in finding the operating point.


Date: Fri Mar 08 12:11:48 2019
Total elapsed time: 0.531 seconds.

tnom = 27
temp = 27
method = modified trap
totiter = 4951
traniter = 3392
tranpoints = 1697
accept = 1349
rejected = 348
matrix size = 78
fillins = 465
solver = Normal
Matrix Compiler1: 40.47 KB object code size  12.5/7.8/[3.1]
Matrix Compiler2: 14.68 KB object code size  5.4/4.0/[2.0]

