Circuit: * C:\Users\PC\Documents\LTspiceXVII\ELEC3400\noninverting.asc

Error on line 7 : v3 0 -12 v
	 Unknown parameter "v"
Error on line 8 : v4 +12 0 v
	 Unknown parameter "v"
V4: Missing value, assumed 0V @ DC
V3: Missing value, assumed 0V @ DC
Direct Newton iteration for .op point succeeded.
Heightened Def Con from 0.0175987 to 0.0175987
