Circuit: * C:\Users\nick\Downloads\ELEC3400\ltspice\group_project\v3_my_terrible_opamp - Copy\v4.asc

Warning: Multiple definitions of model "aons66402" Type: Vdmos1
WARNING: Node VOUT is floating.

WARNING: Less than two connections to node -VCC.  This node is used by V1.
WARNING: Less than two connections to node VOUT.  This node is used by C4.
WARNING: Less than two connections to node NC_01.  This node is used by R15.
WARNING: Less than two connections to node NC_02.  This node is used by R16.
Direct Newton iteration for .op point succeeded.

Date: Thu May 13 02:07:17 2021
Total elapsed time: 0.527 seconds.

tnom = 27
temp = 27
method = trap
totiter = 41
traniter = 0
tranpoints = 0
accept = 0
rejected = 0
matrix size = 46
fillins = 14
solver = Normal
Matrix Compiler1:     200 opcodes
Matrix Compiler2:     318 opcodes
