Circuit: * C:\Users\nick\Downloads\ELEC3400\ltspice\group_project\v4\v4.asc

Warning: Multiple definitions of model "aons66402" Type: Vdmos1
WARNING: Less than two connections to node -VCC.  This node is used by V1.
WARNING: Less than two connections to node NC_01.  This node is used by R15.
Direct Newton iteration for .op point succeeded.

Date: Thu May 13 02:29:19 2021
Total elapsed time: 0.578 seconds.

tnom = 27
temp = 27
method = modified trap
totiter = 12079
traniter = 12038
tranpoints = 4016
accept = 2418
rejected = 1598
matrix size = 45
fillins = 38
solver = Normal
Matrix Compiler1: 4.48 KB object code size  2.7/1.5/[0.9]
Matrix Compiler2: 4.35 KB object code size  1.2/1.9/[1.1]

