Circuit: * C:\Users\nick\Downloads\ELEC3400\ltspice\group_project\v6\testing.asc

Warning: Multiple definitions of model "aons66402" Type: Vdmos1
WARNING: Node VOUT is floating.

WARNING: Less than two connections to node NC_01.  This node is used by R16.
WARNING: Less than two connections to node VOUT.  This node is used by C3.
WARNING: Less than two connections to node NC_02.  This node is used by R21.
Direct Newton iteration failed to find .op point.  (Use ".option noopiter" to skip.)
Starting Gmin stepping
Gmin = 10
Gmin = 1.07374
Gmin = 0.115292
Gmin = 0.0123794
Gmin = 0.00132923
Gmin = 0.000142725
Gmin = 1.5325e-005
Gmin = 1.6455e-006
Gmin = 1.76685e-007
Gmin = 1.89714e-008
Gmin = 2.03704e-009
Gmin = 2.18725e-010
Gmin = 2.34854e-011
Gmin = 2.52173e-012
Gmin = 2.70769e-013
Gmin = 0
Gmin stepping succeeded in finding the operating point.

.step r=1000
.step r=2000
.step r=4000
.step r=8000
.step r=16000
.step r=32000
.step r=64000
.step r=100000

Date: Tue May 18 15:32:47 2021
Total elapsed time: 0.978 seconds.

tnom = 27
temp = 27
method = modified trap
totiter = 1705
traniter = 1242
tranpoints = 416
accept = 258
rejected = 158
matrix size = 59
fillins = 26
solver = Normal
Matrix Compiler1: 5.39 KB object code size  1.3/0.7/[0.5]
Matrix Compiler2: 5.80 KB object code size  1.1/1.0/[0.5]

