Circuit: * C:\Users\nick\Downloads\ELEC3400\ltspice\group_project\v10\diff_amp.asc

Warning: Multiple definitions of model "aons66402" Type: Vdmos1
WARNING: Node VOUT is floating.

WARNING: Less than two connections to node VOUT.  This node is used by C7.
WARNING: Less than two connections to node NC_01.  This node is used by R2.
Direct Newton iteration failed to find .op point.  (Use ".option noopiter" to skip.)
Starting Gmin stepping
Gmin = 10
Gmin = 1.07374
Gmin = 0.115292
Gmin = 0.0123794
Gmin = 0.00132923
Gmin = 0.000142725
Gmin = 1.5325e-005
Gmin = 1.6455e-006
Gmin = 1.76685e-007
Gmin = 1.89714e-008
Gmin = 2.03704e-009
Gmin = 2.18725e-010
Gmin = 2.34854e-011
Gmin = 2.52173e-012
Gmin = 2.70769e-013
Gmin = 0
Gmin stepping succeeded in finding the operating point.


Date: Wed May 26 04:51:26 2021
Total elapsed time: 0.202 seconds.

tnom = 27
temp = 27
method = modified trap
totiter = 12450
traniter = 12033
tranpoints = 4016
accept = 2418
rejected = 1598
matrix size = 33
fillins = 14
solver = Normal
Matrix Compiler1:     162 opcodes  0.4/[0.2]/0.6
Matrix Compiler2: 2.95 KB object code size  0.4/0.3/[0.2]

