Circuit: * C:\Users\nick\Downloads\ELEC3400\ltspice\group_project\v10\full_circuit.asc

Warning: Multiple definitions of model "aons66402" Type: Vdmos1
WARNING: Less than two connections to node NC_01.  This node is used by R39.
WARNING: Less than two connections to node NC_02.  This node is used by R15.
Direct Newton iteration failed to find .op point.  (Use ".option noopiter" to skip.)
Starting Gmin stepping
Gmin = 10
Gmin = 1.07374
Gmin = 0.115292
Gmin = 0.0123794
Gmin = 0.00132923
Gmin = 0.000142725
Gmin = 1.5325e-005
Gmin = 1.6455e-006
Gmin = 1.76685e-007
Gmin = 1.89714e-008
Gmin = 2.03704e-009
Gmin = 2.18725e-010
Gmin = 2.34854e-011
Gmin = 2.52173e-012
Gmin = 2.70769e-013
Gmin = 0
Gmin stepping succeeded in finding the operating point.


Date: Wed May 26 10:37:02 2021
Total elapsed time: 0.376 seconds.

tnom = 27
temp = 27
method = modified trap
totiter = 15704
traniter = 15235
tranpoints = 4435
accept = 3024
rejected = 1411
matrix size = 82
fillins = 80
solver = Normal
Matrix Compiler1: 9.73 KB object code size  2.5/1.6/[0.6]
Matrix Compiler2: 9.13 KB object code size  1.0/1.0/[0.5]

