Circuit: * C:\Users\nick\Downloads\ELEC3400\ltspice\group_project\v7_finally_doing_calculations\calculations.asc

Warning: Multiple definitions of model "aons66402" Type: Vdmos1
WARNING: Node NC_01 is floating.
WARNING: Node N006 is floating.
WARNING: Node NC_04 is floating.
WARNING: Node N009 is floating.

WARNING: Less than two connections to node NC_01.  This node is used by C1.
WARNING: Less than two connections to node NC_02.  This node is used by R13.
WARNING: Less than two connections to node NC_03.  This node is used by R15.
WARNING: Less than two connections to node NC_04.  This node is used by C6.
Direct Newton iteration for .op point succeeded.

Date: Tue May 18 16:28:49 2021
Total elapsed time: 0.730 seconds.

tnom = 27
temp = 27
method = modified trap
totiter = 11676
traniter = 11635
tranpoints = 4016
accept = 2418
rejected = 1598
matrix size = 52
fillins = 12
solver = Normal
Matrix Compiler1: 3.66 KB object code size  2.1/1.1/[0.6]
Matrix Compiler2: 4.44 KB object code size  1.1/1.7/[0.9]

