Circuit: * C:\Users\nick\Downloads\ELEC3400\ltspice\group_project\v7_finally_doing_calculations\Draft3.asc

Warning: Multiple definitions of model "aons66402" Type: Vdmos1
Direct Newton iteration for .op point succeeded.

Date: Tue May 18 17:35:14 2021
Total elapsed time: 0.195 seconds.

tnom = 27
temp = 27
method = modified trap
totiter = 11073
traniter = 11032
tranpoints = 4016
accept = 2418
rejected = 1598
matrix size = 21
fillins = 10
solver = Normal
Matrix Compiler1: 1.53 KB object code size  0.2/0.1/[0.1]
Matrix Compiler2: off  [0.1]/0.2/0.1

