Circuit: * C:\Users\PC\Dropbox\ELEC3400 LTSpice\Lab1\ELEC3400 Prac1 - Copy (2).asc

Early termination of direct N-R iteration.
Direct Newton iteration failed to find .op point.  (Use ".option noopiter" to skip.)
Starting Gmin stepping
Gmin = 10
vernier = 0.5
vernier = 0.25
vernier = 0.125
Gmin = 5.5165
vernier = 0.0625
vernier = 0.03125
vernier = 0.015625
vernier = 0.0078125
Gmin = 5.49501
vernier = 0.00390625
vernier = 0.00195313
vernier = 0.000976563
vernier = 0.000488281
Gmin = 5.50104
Gmin = 0
Gmin stepping failed

Starting source stepping with srcstepmethod=0
Source Step = 3.0303%
Source Step = 12.1212%
Source Step = 19.697%
Source Step = 27.2727%
Source Step = 34.8485%
Source Step = 42.4242%
vernier = 0.375
Source Step = 52.6515%
Source Step = 64.0152%
Source Step = 75.3788%
Source Step = 86.7424%
Source Step = 98.1061%
Source stepping succeeded in finding the operating point.


Date: Sat Mar 23 22:33:27 2019
Total elapsed time: 0.828 seconds.

tnom = 27
temp = 27
method = modified trap
totiter = 4571
traniter = 2504
tranpoints = 1253
accept = 930
rejected = 323
matrix size = 76
fillins = 510
solver = Normal
Thread vector: 19.0/9.4[2] 10.6/3.8[2] 10.8/6.0[2] 0.9/3.2[1]  2592/500
Matrix Compiler1: 51.89 KB object code size  11.8/5.6/[2.8]
Matrix Compiler2: 15.53 KB object code size  5.1/5.8/[1.6]

