Circuit: * C:\Users\PC\Dropbox\ELEC3400 LTSpice\Prac1\Noninverting Opamp.asc

Direct Newton iteration failed to find .op point.  (Use ".option noopiter" to skip.)
Starting Gmin stepping
Increasing initial diagonal Gmin to 100
Gmin = 100
vernier = 0.5
vernier = 0.25
Gmin = 34.2672
vernier = 0.125
vernier = 0.0625
vernier = 0.03125
vernier = 0.015625
Gmin = 33.0995
vernier = 0.0078125
vernier = 0.00390625
vernier = 0.00195313
Gmin = 32.9705
vernier = 0.000976563
vernier = 0.000488281
Gmin = 0
Gmin stepping failed

Starting source stepping with srcstepmethod=0
Source Step = 3.0303%
Source Step = 33.3333%
Source Step = 63.6364%
Source Step = 93.9394%
Source stepping succeeded in finding the operating point.


Date: Fri Mar 01 15:46:33 2019
Total elapsed time: 0.327 seconds.

tnom = 27
temp = 27
method = modified trap
totiter = 5434
traniter = 3646
tranpoints = 1824
accept = 1225
rejected = 599
matrix size = 31
fillins = 50
solver = Normal
Matrix Compiler1: 3.25 KB object code size  1.7/1.0/[0.4]
Matrix Compiler2: 3.38 KB object code size  0.8/1.2/[0.8]

