Circuit: * C:\Users\nick\Downloads\ELEC3400\ltspice\group_project\v10\BJT.asc

WARNING: Node VOUT is floating.

WARNING: Less than two connections to node VOUT.  This node is used by C2.
Direct Newton iteration for .op point succeeded.

Date: Wed May 26 09:24:32 2021
Total elapsed time: 0.312 seconds.

tnom = 27
temp = 27
method = modified trap
totiter = 8036
traniter = 8030
tranpoints = 4016
accept = 2418
rejected = 1598
matrix size = 14
fillins = 0
solver = Normal
Matrix Compiler1: 688 bytes object code size  0.2/0.1/[0.1]
Matrix Compiler2: 1.06 KB object code size  0.1/0.2/[0.1]

