Circuit: * C:\Users\nick\Downloads\ELEC3400\ltspice\group_project\v10\full_circuit.asc

Warning: Multiple definitions of model "aons66402" Type: Vdmos1
WARNING: Node VOUT is floating.

WARNING: Less than two connections to node NC_01.  This node is used by R39.
WARNING: Less than two connections to node VOUT.  This node is used by C8.
WARNING: Less than two connections to node NC_02.  This node is used by R15.
Direct Newton iteration failed to find .op point.  (Use ".option noopiter" to skip.)
Starting Gmin stepping
Gmin = 10
Gmin = 1.07374
Gmin = 0.115292
Gmin = 0.0123794
Gmin = 0.00132923
Gmin = 0.000142725
Gmin = 1.5325e-005
Gmin = 1.6455e-006
Gmin = 1.76685e-007
Gmin = 1.89714e-008
Gmin = 2.03704e-009
Gmin = 2.18725e-010
Gmin = 2.34854e-011
Gmin = 2.52173e-012
Gmin = 2.70769e-013
Gmin = 0
Gmin stepping succeeded in finding the operating point.


Date: Wed May 26 10:26:40 2021
Total elapsed time: 0.220 seconds.

tnom = 27
temp = 27
method = modified trap
totiter = 11958
traniter = 11502
tranpoints = 3699
accept = 2451
rejected = 1248
matrix size = 71
fillins = 26
solver = Normal
Matrix Compiler1: 6.42 KB object code size  1.0/0.5/[0.3]
Matrix Compiler2: 7.16 KB object code size  0.8/0.9/[0.3]

