Circuit: * C:\Users\nick\Downloads\ELEC3400\ltspice\group_project\v10\full_circuit.asc

Warning: Multiple definitions of model "aons66402" Type: Vdmos1
WARNING: Less than two connections to node NC_01.  This node is used by R15.
Direct Newton iteration failed to find .op point.  (Use ".option noopiter" to skip.)
Starting Gmin stepping
Gmin = 10
Gmin = 1.07374
Gmin = 0.115292
Gmin = 0.0123794
Gmin = 0.00132923
Gmin = 0.000142725
Gmin = 1.5325e-005
Gmin = 1.6455e-006
Gmin = 1.76685e-007
Gmin = 1.89714e-008
Gmin = 2.03704e-009
Gmin = 2.18725e-010
Gmin = 2.34854e-011
Gmin = 2.52173e-012
Gmin = 2.70769e-013
Gmin = 0
Gmin stepping succeeded in finding the operating point.


Date: Wed May 26 12:45:56 2021
Total elapsed time: 3.307 seconds.

tnom = 27
temp = 27
method = modified trap
totiter = 120515
traniter = 120043
tranpoints = 40016
accept = 24018
rejected = 15998
matrix size = 70
fillins = 64
solver = Normal
Matrix Compiler1: 7.92 KB object code size  3.0/1.7/[0.9]
Matrix Compiler2: 7.65 KB object code size  2.0/1.9/[0.9]

