Circuit: * C:\Users\nick\Downloads\ELEC3400\LTSpice\Lab3\Draft2.asc

Warning: Multiple definitions of model "aons66402" Type: Vdmos1
WARNING: Node VOUT is floating.

WARNING: Less than two connections to node VOUT.  This node is used by C2.
Direct Newton iteration for .op point succeeded.

Date: Fri Mar 19 07:57:44 2021
Total elapsed time: 0.193 seconds.

tnom = 27
temp = 27
method = modified trap
totiter = 6915
traniter = 6908
tranpoints = 2306
accept = 1482
rejected = 824
matrix size = 12
fillins = 5
solver = Normal
Matrix Compiler1: 838 bytes object code size  0.5/0.3/[0.3]
Matrix Compiler2: 996 bytes object code size  0.3/0.4/[0.3]

