Circuit: * C:\Users\perry\Desktop\Files In Use\ELEC3400\Design Project\Git\ltspice\group_project\v9_Perry\pushed yay.asc

Direct Newton iteration for .op point succeeded.
.step r=1000
.step r=2000
.step r=4000
.step r=8000
.step r=16000
.step r=32000
.step r=64000
.step r=100000

Date: Thu May 20 13:39:10 2021
Total elapsed time: 6.553 seconds.

tnom = 27
temp = 27
method = modified trap
totiter = 63063
traniter = 63054
tranpoints = 20496
accept = 13518
rejected = 6978
matrix size = 71
fillins = 72
solver = Normal
Matrix Compiler1: 8.81 KB object code size  2.4/0.9/[0.6]
Matrix Compiler2: off  [0.9]/1.0/1.2

