Circuit: * C:\Users\nick\Downloads\ELEC3400\LTSpice\group_project - Copy\two_differential_amplifiers_at_the_same_time.asc

Warning: Multiple definitions of model "aons66402" Type: Vdmos1
WARNING: Node NC_02 is floating.
WARNING: Node NC_03 is floating.
WARNING: Node NC_04 is floating.
WARNING: Node NC_05 is floating.
WARNING: Node N015 is floating.
WARNING: Node N020 is floating.
WARNING: Node NC_07 is floating.

WARNING: Less than two connections to node NC_01.  This node is used by Q3.
WARNING: Less than two connections to node NC_02.  This node is used by R1.
WARNING: Less than two connections to node NC_04.  This node is used by R3.
WARNING: Less than two connections to node N017.  This node is used by M5.
WARNING: Less than two connections to node N015.  This node is used by R27.
WARNING: Less than two connections to node NC_06.  This node is used by R30.
WARNING: Less than two connections to node N020.  This node is used by C1.
WARNING: Less than two connections to node NC_07.  This node is used by R31.
WARNING: Less than two connections to node NC_08.  This node is used by R18.
Direct Newton iteration for .op point succeeded.

Date: Wed May 05 11:49:21 2021
Total elapsed time: 0.564 seconds.

tnom = 27
temp = 27
method = modified trap
totiter = 3621
traniter = 3578
tranpoints = 1720
accept = 1341
rejected = 379
matrix size = 114
fillins = 86
solver = Normal
Matrix Compiler1: 12.57 KB object code size  7.9/4.5/[2.4]
Matrix Compiler2: 11.25 KB object code size  3.3/5.9/[2.2]

