Circuit: * C:\Users\nick\Downloads\ELEC3400\ltspice\group_project\v4\v4.asc

Warning: Multiple definitions of model "aons66402" Type: Vdmos1
WARNING: Node NC_02 is floating.
WARNING: Node NC_03 is floating.
WARNING: Node NC_04 is floating.

WARNING: Less than two connections to node -VCC.  This node is used by V1.
WARNING: Less than two connections to node NC_01.  This node is used by R18.
WARNING: Less than two connections to node NC_02.  This node is used by C6.
WARNING: Less than two connections to node NC_03.  This node is used by C9.
WARNING: Less than two connections to node NC_04.  This node is used by C5.
Direct Newton iteration for .op point succeeded.

Date: Mon May 10 19:32:47 2021
Total elapsed time: 8.767 seconds.

tnom = 27
temp = 27
method = modified trap
totiter = 531678
traniter = 531637
tranpoints = 145165
accept = 101004
rejected = 44161
matrix size = 51
fillins = 42
solver = Normal
Matrix Compiler1: 4.94 KB object code size  2.0/1.1/[0.6]
Matrix Compiler2: 4.84 KB object code size  0.8/1.5/[0.7]

