Circuit: * C:\Users\nick\Downloads\ELEC3400\LTSpice\Lab1\complete_circuit.asc

Early termination of direct N-R iteration.
Direct Newton iteration failed to find .op point.  (Use ".option noopiter" to skip.)
Starting Gmin stepping
Gmin = 10
vernier = 0.5
vernier = 0.25
vernier = 0.125
Gmin = 5.5165
vernier = 0.0625
vernier = 0.03125
vernier = 0.015625
vernier = 0.0078125
Gmin = 5.49501
vernier = 0.00390625
vernier = 0.00195313
vernier = 0.000976563
vernier = 0.000488281
Gmin = 5.50104
Gmin = 0
Gmin stepping failed

Starting source stepping with srcstepmethod=0
Source Step = 3.0303%
Source Step = 12.1212%
Source Step = 19.697%
Source Step = 27.2727%
Source Step = 34.8485%
Source Step = 42.4242%
vernier = 0.375
Source Step = 52.6515%
Source Step = 64.0152%
Source Step = 75.3788%
Source Step = 86.7424%
Source Step = 98.1061%
Source stepping succeeded in finding the operating point.


Date: Tue Apr 27 12:13:44 2021
Total elapsed time: 1.664 seconds.

tnom = 27
temp = 27
method = modified trap
totiter = 46023
traniter = 43860
tranpoints = 21931
accept = 13575
rejected = 8356
matrix size = 78
fillins = 510
solver = Normal
Thread vector: 13.6/10.0[2] 2.1/2.5[1] 4.2/3.6[2] 1.2/3.2[1]  2592/500
Matrix Compiler1: 51.94 KB object code size  10.1/5.1/[2.5]
Matrix Compiler2: 15.64 KB object code size  7.1/5.4/[1.6]

