Circuit: * C:\Users\PC\Dropbox\ELEC3400 LTSpice\Prac1\ELEC3400 Prac1.asc

Early termination of direct N-R iteration.
Direct Newton iteration failed to find .op point.  (Use ".option noopiter" to skip.)
Starting Gmin stepping
Gmin = 10
vernier = 0.5
vernier = 0.25
vernier = 0.125
Gmin = 5.5165
vernier = 0.0625
vernier = 0.03125
vernier = 0.015625
vernier = 0.0078125
Gmin = 5.49501
vernier = 0.00390625
vernier = 0.00195313
vernier = 0.000976563
vernier = 0.000488281
Gmin = 5.50104
Gmin = 0
Gmin stepping failed

Starting source stepping with srcstepmethod=0
Source Step = 3.0303%
Source Step = 33.3333%
Source Step = 63.6364%
Source Step = 93.9394%
Source stepping succeeded in finding the operating point.


Date: Fri Mar 08 13:22:57 2019
Total elapsed time: 0.546 seconds.

tnom = 27
temp = 27
method = modified trap
totiter = 5316
traniter = 3648
tranpoints = 1825
accept = 1379
rejected = 446
matrix size = 78
fillins = 529
solver = Normal
Thread vector: 12.5/5.6[2] 2.0/4.3[1] 3.5/3.6[1] 1.0/1.9[1]  2592/500
Matrix Compiler1: 51.14 KB object code size  8.9/4.0/[2.2]
Matrix Compiler2: 16.05 KB object code size  6.1/2.9/[1.8]

