Circuit: * C:\Users\nick\Downloads\ELEC3400\LTSpice\Lab1\filter.asc

Direct Newton iteration for .op point succeeded.

Date: Tue Apr 27 11:49:55 2021
Total elapsed time: 0.220 seconds.

tnom = 27
temp = 27
method = trap
totiter = 18
traniter = 0
tranpoints = 0
accept = 0
rejected = 0
matrix size = 30
fillins = 49
solver = Normal
Matrix Compiler1:     234 opcodes
Matrix Compiler2: 3.31 KB object code size
