Circuit: * C:\Users\nick\Downloads\ELEC3400\LTSpice\Lab1\signal_conditioning_circuit_without_filter.asc

Early termination of direct N-R iteration.
Direct Newton iteration failed to find .op point.  (Use ".option noopiter" to skip.)
Starting Gmin stepping
Increasing initial diagonal Gmin to 100
Gmin = 100
vernier = 0.5
vernier = 0.25
Gmin = 34.2672
vernier = 0.125
vernier = 0.0625
vernier = 0.03125
vernier = 0.015625
Gmin = 33.0995
vernier = 0.0078125
vernier = 0.00390625
vernier = 0.00195313
Gmin = 32.9705
vernier = 0.000976563
vernier = 0.000488281
Gmin = 0
Gmin stepping failed

Starting source stepping with srcstepmethod=0
Source Step = 3.0303%
Source Step = 33.3333%
Source Step = 63.6364%
Source Step = 93.9394%
Source stepping succeeded in finding the operating point.


Date: Tue Apr 27 12:05:32 2021
Total elapsed time: 0.341 seconds.

tnom = 27
temp = 27
method = modified trap
totiter = 4075
traniter = 2346
tranpoints = 1174
accept = 874
rejected = 300
matrix size = 52
fillins = 137
solver = Normal
Matrix Compiler1: 10.07 KB object code size  3.6/1.8/[1.0]
Matrix Compiler2: 6.78 KB object code size  1.6/1.6/[0.8]

