Circuit: * C:\Users\nick\Downloads\ELEC3400\ltspice\group_project\v9\Draft3.asc

Warning: Multiple definitions of model "aons66402" Type: Vdmos1
WARNING: Node VOUT is floating.

WARNING: Less than two connections to node VOUT.  This node is used by C7.
WARNING: Less than two connections to node NC_01.  This node is used by R2.
Direct Newton iteration for .op point succeeded.

Date: Fri May 21 15:56:06 2021
Total elapsed time: 0.312 seconds.

tnom = 27
temp = 27
method = modified trap
totiter = 9273
traniter = 9232
tranpoints = 4016
accept = 2418
rejected = 1598
matrix size = 22
fillins = 8
solver = Normal
Matrix Compiler1: 1.46 KB object code size  0.4/0.2/[0.2]
Matrix Compiler2: off  [0.2]/0.4/0.3

