Circuit: * C:\Users\nick\Downloads\ELEC3400\ltspice\group_project\v7_finally_doing_calculations\Draft2.asc

Warning: Multiple definitions of model "aons66402" Type: Vdmos1
WARNING: Less than two connections to node -VCC.  This node is used by V1.
Direct Newton iteration for .op point succeeded.

Date: Tue May 18 17:30:44 2021
Total elapsed time: 0.203 seconds.

tnom = 27
temp = 27
method = modified trap
totiter = 8041
traniter = 8030
tranpoints = 4016
accept = 2418
rejected = 1598
matrix size = 15
fillins = 0
solver = Normal
Matrix Compiler1: 658 bytes object code size  0.1/0.1/[0.1]
Matrix Compiler2: 1.04 KB object code size  0.1/0.1/[0.1]

