Circuit: * C:\Users\nick\Downloads\ELEC3400\ltspice\group_project\v9\v9.asc

Warning: Multiple definitions of model "aons66402" Type: Vdmos1
WARNING: Node N010 is floating.
WARNING: Node N008 is floating.
WARNING: Node VOUT is floating.
WARNING: Node N004 is floating.

WARNING: Less than two connections to node NC_01.  This node is used by R26.
WARNING: Less than two connections to node VOUT.  This node is used by C13.
WARNING: Less than two connections to node N004.  This node is used by C1.
Direct Newton iteration failed to find .op point.  (Use ".option noopiter" to skip.)
Starting Gmin stepping
Gmin = 10
Gmin = 1.07374
Gmin = 0.115292
Gmin = 0.0123794
Gmin = 0.00132923
Gmin = 0.000142725
Gmin = 1.5325e-005
Gmin = 1.6455e-006
Gmin = 1.76685e-007
Gmin = 1.89714e-008
Gmin = 2.03704e-009
Gmin = 2.18725e-010
Gmin = 2.34854e-011
Gmin = 2.52173e-012
Gmin = 2.70769e-013
Gmin = 0
Gmin stepping succeeded in finding the operating point.


Date: Mon May 24 04:58:58 2021
Total elapsed time: 0.287 seconds.

tnom = 27
temp = 27
method = modified trap
totiter = 1706
traniter = 1240
tranpoints = 416
accept = 258
rejected = 158
matrix size = 73
fillins = 24
solver = Normal
Matrix Compiler1: 6.25 KB object code size  1.5/0.9/[0.5]
Matrix Compiler2: 6.93 KB object code size  1.8/2.1/[0.8]

