Circuit: * C:\Users\nick\Downloads\ELEC3400\ltspice\group_project\v3_my_terrible_opamp\my_terrible_opamp.asc

Warning: Multiple definitions of model "aons66402" Type: Vdmos1
WARNING: Node NC_02 is floating.

WARNING: Less than two connections to node -VCC.  This node is used by V1.
WARNING: Less than two connections to node NC_01.  This node is used by R15.
WARNING: Less than two connections to node NC_02.  This node is used by C6.
Direct Newton iteration for .op point succeeded.

Date: Mon May 10 22:12:54 2021
Total elapsed time: 0.217 seconds.

tnom = 27
temp = 27
method = modified trap
totiter = 11892
traniter = 11851
tranpoints = 4016
accept = 2418
rejected = 1598
matrix size = 46
fillins = 40
solver = Normal
Matrix Compiler1: 4.61 KB object code size  0.9/0.5/[0.2]
Matrix Compiler2: off  [0.3]/0.6/0.4

