Circuit: * C:\Users\nick\Downloads\ELEC3400\ltspice\group_project\v3_my_terrible_opamp\my_terrible_opamp.asc

Warning: Multiple definitions of model "aons66402" Type: Vdmos1
WARNING: Node NC_02 is floating.

WARNING: Less than two connections to node -VCC.  This node is used by V1.
WARNING: Less than two connections to node NC_01.  This node is used by R15.
WARNING: Less than two connections to node NC_02.  This node is used by C6.
Direct Newton iteration for .op point succeeded.
.step r=1000
.step r=2000
.step r=4000
.step r=8000
.step r=16000
.step r=32000
.step r=64000
.step r=100000

Date: Tue May 18 15:15:38 2021
Total elapsed time: 6.554 seconds.

tnom = 27
temp = 27
method = modified trap
totiter = 12081
traniter = 12040
tranpoints = 4016
accept = 2418
rejected = 1598
matrix size = 46
fillins = 40
solver = Normal
Matrix Compiler1: 4.61 KB object code size  3.3/1.9/[1.1]
Matrix Compiler2: off  [1.5]/2.6/1.6

