Circuit: * C:\Users\nick\Downloads\ELEC3400\ltspice\group_project\v8\yay.asc

Warning: Multiple definitions of model "aons66402" Type: Vdmos1
Direct Newton iteration for .op point succeeded.
.step r=1000
.step r=2000
.step r=4000
.step r=8000
.step r=16000
.step r=32000
.step r=64000
.step r=100000

Date: Tue May 18 21:54:58 2021
Total elapsed time: 6.656 seconds.

tnom = 27
temp = 27
method = modified trap
totiter = 60047
traniter = 60039
tranpoints = 20015
accept = 12018
rejected = 7997
matrix size = 60
fillins = 44
solver = Normal
Matrix Compiler1: 6.41 KB object code size  0.9/0.5/[0.3]
Matrix Compiler2: 6.41 KB object code size  0.4/0.6/[0.3]

