Circuit: * C:\Users\nick\Downloads\ELEC3400\ltspice\group_project\v8\yay.asc

Warning: Multiple definitions of model "aons66402" Type: Vdmos1
WARNING: Node N011 is floating.
WARNING: Node N007 is floating.
WARNING: Node N006 is floating.

Direct Newton iteration failed to find .op point.  (Use ".option noopiter" to skip.)
Starting Gmin stepping
Gmin = 10
Gmin = 1.07374
Gmin = 0.115292
Gmin = 0.0123794
Gmin = 0.00132923
Gmin = 0.000142725
Gmin = 1.5325e-005
Gmin = 1.6455e-006
Gmin = 1.76685e-007
Gmin = 1.89714e-008
Gmin = 2.03704e-009
Gmin = 2.18725e-010
Gmin = 2.34854e-011
Gmin = 2.52173e-012
Gmin = 2.70769e-013
Gmin = 0
Gmin stepping succeeded in finding the operating point.

.step r=1000
.step r=2000
.step r=4000
.step r=8000
.step r=16000
.step r=32000
.step r=64000
.step r=100000

Date: Tue May 18 21:21:11 2021
Total elapsed time: 0.494 seconds.

tnom = 27
temp = 27
method = modified trap
totiter = 1654
traniter = 1194
tranpoints = 400
accept = 275
rejected = 125
matrix size = 65
fillins = 60
solver = Normal
Matrix Compiler1: 7.35 KB object code size  1.0/0.5/[0.3]
Matrix Compiler2: 7.03 KB object code size  0.7/0.7/[0.3]

