Circuit: * C:\Users\nick\Downloads\ELEC3400\LTSpice\Lab4\wheatstone.asc

WARNING: Less than two connections to node -15.  This node is used by V4.
Direct Newton iteration for .op point succeeded.

Date: Thu Apr 29 10:59:37 2021
Total elapsed time: 0.518 seconds.

tnom = 27
temp = 27
method = trap
totiter = 3
traniter = 0
tranpoints = 0
accept = 0
rejected = 0
matrix size = 10
fillins = 0
solver = Normal
Matrix Compiler1: 202 bytes object code size
Matrix Compiler2: 550 bytes object code size
