Circuit: * C:\Users\nick\Downloads\ELEC3400\ltspice\Lab5\Draft2.asc

Direct Newton iteration for .op point succeeded.

Date: Wed May 19 09:17:02 2021
Total elapsed time: 1.244 seconds.

tnom = 27
temp = 27
method = modified trap
totiter = 148084
traniter = 148063
tranpoints = 42654
accept = 28588
rejected = 14066
matrix size = 29
fillins = 39
solver = Normal
Matrix Compiler1: 3.46 KB object code size  0.8/0.4/[0.3]
Matrix Compiler2: off  [0.4]/0.5/1.2

