Circuit: * C:\Users\PC\Dropbox\ELEC3400 LTSpice\Lab2\BJT.asc


Date: Fri Mar 15 13:44:35 2019
Total elapsed time: 0.036 seconds.

tnom = 27
temp = 27
method = trap
totiter = 38
traniter = 0
tranpoints = 0
accept = 0
rejected = 0
matrix size = 6
fillins = 0
solver = Normal
Matrix Compiler1: 146 bytes object code size
Matrix Compiler2: 380 bytes object code size
