Circuit: * C:\Users\nick\Downloads\ELEC3400\ltspice\Lab2\deriving_bjt_characteristic_curves_in_lt_spice.asc

.OP point found by inspection.
.step v1=0
.step v1=2
.step v1=4
.step v1=6
.step v1=8
.step v1=10

Date: Wed May 19 09:39:18 2021
Total elapsed time: 0.138 seconds.

tnom = 27
temp = 27
method = trap
totiter = 257
traniter = 0
tranpoints = 0
accept = 0
rejected = 0
matrix size = 11
fillins = 0
solver = Normal
Matrix Compiler1: 502 bytes object code size  0.7/0.3/[0.2]
Matrix Compiler2: 779 bytes object code size  0.4/0.4/[0.1]

