Circuit: * C:\Users\nick\Downloads\LTSpice\Lab2\deriving_bjt_characteristic_curves_in_lt_spice.asc

.OP point found by inspection.
.step v1=0
.step v1=2
.step v1=4
.step v1=6
.step v1=8
.step v1=10

Date: Thu Mar 11 06:24:00 2021
Total elapsed time: 0.047 seconds.

tnom = 27
temp = 27
method = trap
totiter = 257
traniter = 0
tranpoints = 0
accept = 0
rejected = 0
matrix size = 9
fillins = 0
solver = Normal
Matrix Compiler1: 456 bytes object code size  0.2/0.1/[0.1]
Matrix Compiler2: 667 bytes object code size  0.1/0.1/[0.0]

