Circuit: * C:\Users\nick\Downloads\ELEC3400\ltspice\group_project\v2\lab6.asc

Warning: Multiple definitions of model "aons66402" Type: Vdmos1
WARNING: Node N005 is floating.
WARNING: Node N020 is floating.

WARNING: Less than two connections to node N005.  This node is used by C8.
WARNING: Less than two connections to node N020.  This node is used by C10.
Direct Newton iteration for .op point succeeded.

Date: Wed May 26 13:46:39 2021
Total elapsed time: 0.512 seconds.

tnom = 27
temp = 27
method = trap
totiter = 7
traniter = 0
tranpoints = 0
accept = 0
rejected = 0
matrix size = 48
fillins = 18
solver = Normal
Matrix Compiler1:     226 opcodes
Matrix Compiler2: 4.53 KB object code size
