Circuit: * C:\Users\nick\Downloads\ELEC3400\ltspice\group_project\v2\lab6.asc

Warning: Multiple definitions of model "aons66402" Type: Vdmos1
WARNING: Node N006 is floating.

WARNING: Less than two connections to node -VCC.  This node is used by V1.
WARNING: Less than two connections to node N006.  This node is used by C4.
WARNING: Less than two connections to node NC_01.  This node is used by R15.
Direct Newton iteration for .op point succeeded.

Date: Fri May 07 11:37:18 2021
Total elapsed time: 0.999 seconds.

tnom = 27
temp = 27
method = modified trap
totiter = 5186
traniter = 5145
tranpoints = 1720
accept = 1341
rejected = 379
matrix size = 44
fillins = 18
solver = Normal
Matrix Compiler1: 3.57 KB object code size  1.5/1.1/[0.4]
Matrix Compiler2: 3.98 KB object code size  0.8/1.0/[0.6]

