Circuit: * C:\Users\nick\Downloads\ELEC3400\LTSpice\Lab4\Draft1.asc

Early termination of direct N-R iteration.
Direct Newton iteration failed to find .op point.  (Use ".option noopiter" to skip.)
Starting Gmin stepping
Gmin = 10
vernier = 0.5
vernier = 0.25
vernier = 0.125
Gmin = 5.5165
vernier = 0.0625
vernier = 0.03125
vernier = 0.015625
vernier = 0.0078125
Gmin = 5.49501
vernier = 0.00390625
vernier = 0.00195313
vernier = 0.000976563
vernier = 0.000488281
Gmin = 5.50104
Gmin = 0
Gmin stepping failed

Starting source stepping with srcstepmethod=0
Source Step = 3.0303%
Source Step = 33.3333%
Source Step = 63.6364%
Source Step = 93.9394%
Source stepping succeeded in finding the operating point.


Date: Thu Mar 25 22:59:26 2021
Total elapsed time: 1.874 seconds.

tnom = 27
temp = 27
method = modified trap
totiter = 2240
traniter = 556
tranpoints = 279
accept = 279
rejected = 0
matrix size = 150
fillins = 1699
solver = Normal
Thread vector: 63.7/13.8[4] 4.3/4.3[1] 9.2/5.9[4] 5.6/4.3[4]  2592/500
Matrix Compiler1: 304.57 KB object code size  74.2/33.6/[18.7]
Matrix Compiler2:    2729 opcodes  17.7/[10.8]/13.2

