Circuit: * C:\Users\PC\Dropbox\ELEC3400 LTSpice\Lab3\Draft2.asc

WARNING: Node VOUT is floating.

WARNING: Less than two connections to node VOUT.  This node is used by C2.
Direct Newton iteration for .op point succeeded.

Date: Fri Mar 22 15:12:42 2019
Total elapsed time: 0.098 seconds.

tnom = 27
temp = 27
method = modified trap
totiter = 6017
traniter = 6010
tranpoints = 2009
accept = 1292
rejected = 717
matrix size = 12
fillins = 5
solver = Normal
Matrix Compiler1: 838 bytes object code size  0.2/0.2/[0.2]
Matrix Compiler2:      79 opcodes  0.2/[0.1]/0.2

