Circuit: * C:\Users\nick\Downloads\ELEC3400\LTSpice\Lab3\lab3.asc

Warning: Multiple definitions of model "aons66402" Type: Vdmos1
WARNING: Node VOUT is floating.

WARNING: Less than two connections to node VOUT.  This node is used by C2.
Direct Newton iteration for .op point succeeded.

Date: Mon May 03 15:19:51 2021
Total elapsed time: 0.345 seconds.

tnom = 27
temp = 27
method = modified trap
totiter = 1138
traniter = 1130
tranpoints = 381
accept = 324
rejected = 57
matrix size = 12
fillins = 5
solver = Normal
Matrix Compiler1: 838 bytes object code size  0.3/0.2/[0.2]
Matrix Compiler2: 996 bytes object code size  0.2/0.2/[0.2]

