Circuit: * C:\Users\nick\Downloads\ELEC3400\ltspice\lab6\lab6.asc

Warning: Multiple definitions of model "aons66402" Type: Vdmos1
WARNING: Node N006 is floating.

WARNING: Less than two connections to node -VCC.  This node is used by V1.
WARNING: Less than two connections to node N006.  This node is used by C4.
WARNING: Less than two connections to node NC_01.  This node is used by R15.
Direct Newton iteration for .op point succeeded.

Date: Fri May 07 11:35:09 2021
Total elapsed time: 0.747 seconds.

tnom = 27
temp = 27
method = modified trap
totiter = 5182
traniter = 5141
tranpoints = 1719
accept = 1341
rejected = 378
matrix size = 44
fillins = 18
solver = Normal
Matrix Compiler1: 3.57 KB object code size  0.9/0.6/[0.4]
Matrix Compiler2: off  [0.5]/0.8/0.6

